/*--------------------------------*- C++ -*----------------------------------*\
  =========                 |
  \\      /  F ield         | OpenFOAM: The Open Source CFD Toolbox
   \\    /   O peration     | Website:  https://openfoam.org
    \\  /    A nd           | Version:  11
     \\/     M anipulation  |
\*---------------------------------------------------------------------------*/
FoamFile
{
    format      ascii;
    class       volVectorField;
    object      U;
}
// * * * * * * * * * * * * * * * * * * * * * * * * * * * * * * * * * * * * * //

dimensions      [0 1 -1 0 0 0 0];

internalField   uniform (88.63269777109872 15.62833599002373 0);

boundaryField
{
    inlet
    {
        type            freestreamVelocity;
        freestreamValue $internalField;
    }

    outlet
    {
        type            freestreamVelocity;
        freestreamValue $internalField;
    }

    airfoil
    {
        type            noSlip;
    }

    side
    {
        type            empty;
    }
}

// ************************************************************************* //
